Circuit: * C:\Users\D4nny\Documents\school\spt\SPT_MK1_Better\ltspice\Draft2.asc

Warning: Multiple definitions of model "2scr375p" Type: BJT
Warning: Multiple definitions of model "bc857b" Type: BJT
Warning: Multiple definitions of model "bc847c" Type: BJT
Warning: Multiple definitions of model "bc847b" Type: BJT
Direct Newton iteration for .op point succeeded.

Date: Thu Oct 26 00:06:51 2023
Total elapsed time: 0.115 seconds.

tnom = 27
temp = 27
method = modified trap
totiter = 2783
traniter = 2776
tranpoints = 1341
accept = 1272
rejected = 69
matrix size = 14
fillins = 2
solver = Normal
Avg thread counts: 5.5/10.2/10.2/5.5
Matrix Compiler1:      51 opcodes  0.2/[0.1]/0.2
Matrix Compiler2:      92 opcodes  0.1/[0.1]/0.1

