Circuit: * C:\Users\D4nny\Documents\school\spt\SPT_MK1_Better\ltspice\Draft1.asc

Limiting fall time of source v2 to 0.0005
Direct Newton iteration for .op point succeeded.

Date: Wed Oct 25 12:05:17 2023
Total elapsed time: 0.118 seconds.

tnom = 27
temp = 27
method = modified trap
totiter = 2456
traniter = 2446
tranpoints = 1223
accept = 1189
rejected = 34
matrix size = 8
fillins = 0
solver = Normal
Avg thread counts: 6.1/11.1/11.1/6.1
Matrix Compiler1:      16 opcodes  0.1/[0.1]/0.1
Matrix Compiler2: off  [0.1]/0.1/0.1

