Circuit: * C:\Users\D4nny\Documents\spt\SPT_MK1_Better\ltspice\output_ckt.asc

Warning: Multiple definitions of model "2scr375p" Type: BJT
Warning: Multiple definitions of model "bc857b" Type: BJT
Warning: Multiple definitions of model "bc847c" Type: BJT
Warning: Multiple definitions of model "bc847b" Type: BJT
Direct Newton iteration failed to find .op point.  (Use ".option noopiter" to skip.)
Starting Gmin stepping
Gmin = 10
Gmin = 1.07374
Gmin = 0.115292
Gmin = 0.0123794
Gmin = 0.00132923
Gmin = 0.000142725
Gmin = 1.5325e-05
Gmin = 1.6455e-06
Gmin = 1.76685e-07
Gmin = 1.89714e-08
Gmin = 2.03704e-09
Gmin = 2.18725e-10
Gmin = 2.34854e-11
Gmin = 2.52173e-12
Gmin = 2.70769e-13
Gmin = 0
Gmin stepping succeeded in finding the operating point.

Heightened Def Con from 0.001 to 0.001
Heightened Def Con from 0.002 to 0.002
Heightened Def Con from 0.003 to 0.003
Heightened Def Con from 0.004 to 0.004

Date: Tue Nov  7 18:26:23 2023
Total elapsed time: 0.486 seconds.

tnom = 27
temp = 27
method = modified trap
totiter = 7173
traniter = 6747
tranpoints = 2346
accept = 1998
rejected = 352
matrix size = 87
fillins = 46
solver = Normal
Avg thread counts: 1.9/3.5/3.5/1.9
Matrix Compiler1: 7.73 KB object code size  5.1/3.5/[1.4]
Matrix Compiler2: 7.85 KB object code size  2.6/2.6/[1.4]

