Circuit: * C:\Users\D4nny\Documents\school\SPT_MK1_Better\ltspice\output_ckt.asc

Warning: Multiple definitions of model "2scr375p" Type: BJT
Warning: Multiple definitions of model "bc857b" Type: BJT
Warning: Multiple definitions of model "bc847c" Type: BJT
Warning: Multiple definitions of model "bc847b" Type: BJT
Direct Newton iteration failed to find .op point.  (Use ".option noopiter" to skip.)
Starting Gmin stepping
Gmin = 10
Gmin = 1.07374
Gmin = 0.115292
Gmin = 0.0123794
Gmin = 0.00132923
Gmin = 0.000142725
Gmin = 1.5325e-05
Gmin = 1.6455e-06
Gmin = 1.76685e-07
Gmin = 1.89714e-08
Gmin = 2.03704e-09
Gmin = 2.18725e-10
Gmin = 2.34854e-11
Gmin = 2.52173e-12
Gmin = 2.70769e-13
Gmin = 0
Gmin stepping succeeded in finding the operating point.

Heightened Def Con from 0.004 to 0.004
Heightened Def Con from 0.004 to 0.004
Heightened Def Con from 0.004 to 0.004
Heightened Def Con from 0.006 to 0.006
Heightened Def Con from 0.00799024 to 0.00799024
Heightened Def Con from 0.008 +to 0.008

Date: Thu Oct 26 03:29:02 2023
Total elapsed time: 0.472 seconds.

tnom = 27
temp = 27
method = modified trap
totiter = 42838
traniter = 42053
tranpoints = 7103
accept = 5491
rejected = 1619
matrix size = 75
fillins = 14
solver = Normal
Avg thread counts: 1.3/2.8/3.2/1.3
Matrix Compiler1: 4.74 KB object code size  0.6/0.3/[0.3]
Matrix Compiler2: 6.22 KB object code size  0.3/0.4/[0.3]

