Circuit: * C:\Users\D4nny\Documents\school\SPT_MK1_Better\ltspice\output_ckt.asc

Warning: Multiple definitions of model "2scr375p" Type: BJT
Warning: Multiple definitions of model "bc857b" Type: BJT
Warning: Multiple definitions of model "bc847c" Type: BJT
Warning: Multiple definitions of model "bc847b" Type: BJT
Direct Newton iteration failed to find .op point.  (Use ".option noopiter" to skip.)
Starting Gmin stepping
Gmin = 10
Gmin = 1.07374
Gmin = 0.115292
Gmin = 0.0123794
Gmin = 0.00132923
Gmin = 0.000142725
Gmin = 1.5325e-05
Gmin = 1.6455e-06
Gmin = 1.76685e-07
Gmin = 1.89714e-08
Gmin = 2.03704e-09
Gmin = 2.18725e-10
Gmin = 2.34854e-11
Gmin = 2.52173e-12
Gmin = 2.70769e-13
Gmin = 0
Gmin stepping succeeded in finding the operating point.

Heightened Def Con from 0.002 to 0.002
Heightened Def Con from 0.002 to 0.002
Heightened Def Con from 0.002 ++to 0.002
Heightened Def Con from 0.002 to 0.002
Heightened Def Con from 0.003 to 0.003
Heightened Def Con from 0.003 to 0.003
Heightened Def Con from 0.004 +++++++++++++++++to 0.004
Heightened Def Con from 0.004 to 0.004
Heightened Def Con from 0.006 to 0.006

Date: Mon Oct 30 00:05:14 2023
Total elapsed time: 0.203 seconds.

tnom = 27
temp = 27
method = modified trap
totiter = 8814
traniter = 8388
tranpoints = 2490
accept = 2033
rejected = 485
matrix size = 87
fillins = 46
solver = Normal
Avg thread counts: 2.5/6.3/6.4/2.5
Matrix Compiler1: 7.73 KB object code size  1.2/0.5/[0.5]
Matrix Compiler2: 7.85 KB object code size  0.4/0.7/[0.4]

