Circuit: * C:\Users\D4nny\Documents\school\spt\SPT_MK1_Better\ltspice\switches.asc

Warning: Multiple definitions of model "2scr375p" Type: BJT
Warning: Multiple definitions of model "bc857b" Type: BJT
Warning: Multiple definitions of model "bc847c" Type: BJT
Warning: Multiple definitions of model "bc847b" Type: BJT
Limiting fall time of source v1 to 0.5
Direct Newton iteration for .op point succeeded.

Date: Mon Oct 23 12:20:15 2023
Total elapsed time: 0.127 seconds.

tnom = 27
temp = 27
method = modified trap
totiter = 2724
traniter = 2717
tranpoints = 1313
accept = 1250
rejected = 63
matrix size = 14
fillins = 4
solver = Normal
Avg thread counts: 5.6/10.4/10.4/5.6
Matrix Compiler1:      53 opcodes  0.2/[0.1]/0.2
Matrix Compiler2: 1.11 KB object code size  0.1/0.1/[0.1]

